psse_raw/case10_voltage_winding_correction.raw
0,   100.00, 33, 0, 1, 60.00     / PSS(R)E 33 RAW created by rawd33  WED, JUL 23 2025  18:24


   101,'BUS 101     ', 230.0000,3,   1,   1,   1,1.00000,   0.0000,1.10000,0.90000,1.10000,0.90000
   102,'BUS 102     ', 230.0000,1,   1,   1,   1,1.00091,  -0.0555,1.10000,0.90000,1.10000,0.90000
   103,'BUS 103     ', 138.0000,1,   1,   1,   1,1.01602,  -1.2157,1.10000,0.90000,1.10000,0.90000
   104,'BUS 104     ',  85.0000,1,   1,   1,   1,0.90671,   0.0084,1.10000,0.90000,1.10000,0.90000
   105,'BUS 105     ', 138.0000,1,   1,   1,   1,1.01542,  -1.2825,1.10000,0.90000,1.10000,0.90000
   106,'BUS 106     ',  85.0000,2,   1,   1,   1,1.00000,   2.3508,1.10000,0.90000,1.10000,0.90000
   108,'BUS 108     ', 230.0000,1,   1,   1,   1,0.86456,   0.1412,1.10000,0.90000,1.10000,0.90000
   109,'BUS 109     ',  65.0000,1,   1,   1,   1,0.90688,   0.0781,1.10000,0.90000,1.10000,0.90000
   110,'BUS 110     ', 220.0000,1,   1,   1,   1,0.95340,   0.1107,1.10000,0.90000,1.10000,0.90000
   111,'BUS 111     ', 320.0000,1,   1,   1,   1,0.90675,   0.0434,1.10000,0.90000,1.10000,0.90000
0 / END OF BUS DATA, BEGIN LOAD DATA
   105,'1 ',1,   1,   1,    50.000,    20.000,     0.000,     0.000,     0.000,     0.000,   1,1,0
0 / END OF LOAD DATA, BEGIN FIXED SHUNT DATA
   103,'1 ',1,    10.000,     5.000
0 / END OF FIXED SHUNT DATA, BEGIN GENERATOR DATA
   101,'1 ',    87.019,  -100.651,  9999.000, -9999.000,1.00000,     0,   100.000, 0.00000E+0, 1.00000E+0, 0.00000E+0, 0.00000E+0,1.00000,1,  100.0,  9999.000, -9999.000,   1,1.0000
   106,'1 ',    50.000,   106.022,  9999.000, -9999.000,1.00000,     0,   100.000, 0.00000E+0, 1.00000E+0, 0.00000E+0, 0.00000E+0,1.00000,1,  100.0,  9999.000, -9999.000,   1,1.0000
0 / END OF GENERATOR DATA, BEGIN BRANCH DATA
   101,   102,'1 ', 1.00000E-4, 1.00000E-3,   0.02960,    0.00,    0.00,    0.00,  0.00000,  0.00000,  0.00000,  0.00000,1,1,   0.00,   1,1.0000
   102,   108,'1 ', 2.34000E-2, 1.00000E-4,   0.06350,    0.00,    0.00,    0.00,  0.00000,  0.00000,  0.00000,  0.00000,1,1,   0.00,   1,1.0000
   103,   105,'1 ', 2.50000E-4, 2.50000E-3,   0.01860,    0.00,    0.00,    0.00,  0.00000,  0.00000,  0.00000,  0.00000,1,1,   0.00,   1,1.0000
   104,   106,'1 ', 5.60000E-3, 8.60000E-2,   0.00165,    0.00,    0.00,    0.00,  0.00000,  0.00000,  0.00000,  0.00000,1,1,   0.00,   1,1.0000
0 / END OF BRANCH DATA, BEGIN TRANSFORMER DATA
   102,   104,   103,'1 ',1,1,1, 0.00000E+0, 0.00000E+0,2,'            ',1,   1,1.0000,   0,1.0000,   0,1.0000,   0,1.0000,'            '
 2.30000E-3, 2.00000E-4,   100.00, 4.02000E-3, 2.00000E-4,   100.00, 4.50000E-2, 2.00000E-4,   100.00,1.06627,  -1.3675
1.02600,   0.000,   0.000,     0.00,     0.00,     0.00, 1,      0, 1.05000, 0.95000, 1.10000, 0.90000,  33, 0, 0.00000, 0.00000,  0.000
0.92560,   0.000,   0.000,     0.00,     0.00,     0.00, 0,      0, 1.10000, 0.90000, 1.10000, 0.90000,  33, 0, 0.00000, 0.00000,  0.000
0.91500,   0.000,   0.000,     0.00,     0.00,     0.00, 0,      0, 1.10000, 0.90000, 1.10000, 0.90000,  33, 0, 0.00000, 0.00000,  0.000
   104,   109,   111,'1 ',2,1,1, 0.00000E+0, 0.00000E+0,2,'            ',1,   1,1.0000,   0,1.0000,   0,1.0000,   0,1.0000,'            '
 2.50000E-5, 2.00000E-4,   100.00, 3.50000E-5, 2.00000E-4,   100.00, 1.80000E-5, 2.00000E-4,   100.00,0.90675,   0.0434
85.0000,   0.000,   0.000,     0.00,     0.00,     0.00, 1,      0,93.50000,76.50000, 1.10000, 0.90000,  33, 0, 0.00000, 0.00000,  0.000
65.0000,   0.000,   0.000,     0.00,     0.00,     0.00, 0,      0, 1.10000, 0.90000, 1.10000, 0.90000,  33, 0, 0.00000, 0.00000,  0.000
320.000,   0.000,   0.000,     0.00,     0.00,     0.00, 0,      0, 1.10000, 0.90000, 1.10000, 0.90000,  33, 0, 0.00000, 0.00000,  0.000
   108,   110,   109,'1 ',3,1,1, 0.00000E+0, 0.00000E+0,2,'            ',1,   1,1.0000,   0,1.0000,   0,1.0000,   0,1.0000,'            '
 5.23000E-4, 2.00000E-4,   100.00, 3.52000E-4, 2.00000E-4,   100.00, 5.68000E-4, 2.00000E-4,   100.00,0.90800,   0.1107
1.05000,   0.000,   0.000,     0.00,     0.00,     0.00, 0,      0, 1.05000, 0.93000, 1.10000, 0.90000,  33, 0, 0.00000, 0.00000,  0.000
0.95600,   0.000,   0.000,     0.00,     0.00,     0.00, 0,      0, 1.10000, 0.90000, 1.10000, 0.90000,  33, 0, 0.00000, 0.00000,  0.000
0.95652,   0.000,   0.000,     0.00,     0.00,     0.00, 1,      0, 1.05000, 0.93000, 1.10000, 0.90000,  33, 0, 0.00000, 0.00000,  0.000
0 / END OF TRANSFORMER DATA, BEGIN AREA DATA
0 / END OF AREA DATA, BEGIN TWO-TERMINAL DC DATA
0 / END OF TWO-TERMINAL DC DATA, BEGIN VSC DC LINE DATA
0 / END OF VSC DC LINE DATA, BEGIN IMPEDANCE CORRECTION DATA
0 / END OF IMPEDANCE CORRECTION DATA, BEGIN MULTI-TERMINAL DC DATA
0 / END OF MULTI-TERMINAL DC DATA, BEGIN MULTI-SECTION LINE DATA
0 / END OF MULTI-SECTION LINE DATA, BEGIN ZONE DATA
0 / END OF ZONE DATA, BEGIN INTER-AREA TRANSFER DATA
0 / END OF INTER-AREA TRANSFER DATA, BEGIN OWNER DATA
0 / END OF OWNER DATA, BEGIN FACTS DEVICE DATA
0 / END OF FACTS DEVICE DATA, BEGIN SWITCHED SHUNT DATA
   104,1,0,1,1.00000,1.00000,     0,  100.0,'            ',   16.00, 2,    3.00, 2,    5.00
0 / END OF SWITCHED SHUNT DATA, BEGIN GNE DATA
0 / END OF GNE DATA, BEGIN INDUCTION MACHINE DATA
0 / END OF INDUCTION MACHINE DATA
Q
